trunk/Training/ConEd-2019/Examples/Control_DSS-G_TCP/ieee13nodeckt_Power_elem_kVA.txt

CIRCUIT ELEMENT POWER FLOW

(Power Flow into element from indicated Bus)

Power Delivery Elements

  Bus     Phase     kW     +j   kvar         kVA         PF

ELEMENT = "Vsource.SOURCE"
SOURCEBUS     1    -2280781.3 +j 4307165.2   4873770.1      -0.4680
SOURCEBUS     2     44493.6 +j -20774.2    49104.4      -0.9061
SOURCEBUS     3    1207843.4 +j 5578411.6   5707675.7       0.2116
   TERMINAL TOTAL .-1028444.3 +j 9864802.6   9918267.4      -0.1037
SOURCEBUS     0         0.0 +j      0.0        0.0       1.0000
SOURCEBUS     0         0.0 +j      0.0        0.0       1.0000
SOURCEBUS     0         0.0 +j      0.0        0.0       1.0000
   TERMINAL TOTAL .     0.0 +j      0.0        0.0       1.0000

ELEMENT = "Line.650632"
RG60          1    -1557508.0 +j -14409748.9   14493677.8       0.1075
RG60          2    -80150.5 +j  48030.3    93439.9      -0.8578
RG60          3    -37086.6 +j  71825.1    80834.8      -0.4588
   TERMINAL TOTAL .-1674745.1 +j -14289893.6   14387697.1       0.1164
632           1    832586367.7 +j 2431615226.1   2570204791.0       0.3239
632           2    6600448.8 +j 17146309.1   18372856.0       0.3593
632           3    -6732990.9 +j 8130186.8   10556187.9      -0.6378
   TERMINAL TOTAL .832453825.6 +j 2456891722.0   2594088723.5       0.3209

ELEMENT = "Line.632670"
632           1    -860059104.9 +j -2454365300.7   2600694271.4       0.3307
632           2    -1224231.9 +j -18833390.9   18873138.5       0.0649
632           3    13474083.1 +j -7570972.4   15455437.2      -0.8718
   TERMINAL TOTAL .-847809253.6 +j -2480769664.1   2621640451.5       0.3234
670           1    1147086334.0 +j 3277416656.3   3472357555.9       0.3303
670           2    1642321.5 +j 25175533.5   25229044.9       0.0651
670           3    -17996831.7 +j 10182495.9   20677745.9      -0.8703
   TERMINAL TOTAL .1130731823.8 +j 3312774685.7   3500432912.6       0.3230

ELEMENT = "Line.670671"
670           1    -1152550316.8 +j -3281227917.3   3477762050.2       0.3314
670           2    -6909413.1 +j -28773249.5   29591212.9       0.2335
670           3    11270705.0 +j -14826098.9   18623694.6      -0.6052
   TERMINAL TOTAL .-1148189024.9 +j -3324827265.7   3517501156.2       0.3264
671           1    1725975833.8 +j 4938075062.5   5231020732.3       0.3300
671           2    10323150.3 +j 43445811.1   44655413.2       0.2312
671           3    -17060287.3 +j 22405441.8   28161271.7      -0.6058
   TERMINAL TOTAL .1719238696.8 +j 5003926315.3   5291035840.5       0.3249

ELEMENT = "Line.671680"
671           1    61292206.1 +j 40991150.1   73736076.0       0.8312
671           2    -11079585.4 +j -9473034.6   14577228.7       0.7601
671           3    -16870414.3 +j -8721572.1   18991490.2       0.8883
   TERMINAL TOTAL .33342206.4 +j 22796543.4   40390408.7       0.8255
680           1    -61247479.0 +j -40856196.2   73623925.8       0.8319
680           2    11087400.0 +j 9486774.8   14592098.4       0.7598
680           3    16886014.6 +j 8773241.4   19029115.9       0.8874
   TERMINAL TOTAL .-33274064.4 +j -22596180.0   40221271.9       0.8273

ELEMENT = "Line.632633"
632           1    27472737.1 +j 22750074.6   35669555.4       0.7702
632           2    5099987.0 +j 4563938.2   6843931.6       0.7452
632           3    3660375.0 +j 3291603.2   4922702.2       0.7436
   TERMINAL TOTAL .36233099.2 +j 30605616.0   47429328.5       0.7639
633           1    -27372701.0 +j -22579666.6   35483885.1       0.7714
633           2    -5078270.7 +j -4519667.0   6798251.5       0.7470
633           3    -3645330.8 +j -3252212.2   4885214.5       0.7462
   TERMINAL TOTAL .-36096302.4 +j -30351545.9   47160994.3       0.7654

ELEMENT = "Line.632645"
632           3    -10401467.2 +j -3850817.6   11091407.3       0.9378
632           2    -10476203.9 +j -2876856.3   10864030.1       0.9643
   TERMINAL TOTAL .-20877671.1 +j -6727673.9   21934875.1       0.9518
645           3    10490029.4 +j 3959263.8   11212336.4       0.9356
645           2    10546751.2 +j 2955856.3   10953129.6       0.9629
   TERMINAL TOTAL .21036780.6 +j 6915120.1   22144187.2       0.9500

ELEMENT = "Line.645646"
645           3    -550018.0 +j -69681.1   554414.3       0.9921
645           2    640288.2 +j 121511.8   651716.3       0.9825
   TERMINAL TOTAL . 90270.2 +j  51830.7   104092.0       0.8672
646           3    550119.2 +j  69753.6   554523.8       0.9921
646           2    -640186.9 +j -121444.6   651604.2       0.9825
   TERMINAL TOTAL .-90067.7 +j -51691.0   103846.8       0.8673

ELEMENT = "Line.692675"
692           1    316745732.3 +j -349931.8   316745925.6      -1.0000
692           2    19063785.1 +j -18335683.7   26450429.1      -0.7207
692           3    48093953.9 +j 10968266.1   49328807.7       0.9750
   TERMINAL TOTAL .383903471.3 +j -7717349.3   383981031.8      -0.9998
675           1    -314695304.1 +j 1277742.0   314697898.0      -1.0000
675           2    -18899851.1 +j 18233865.5   26261725.5      -0.7197
675           3    -47614248.3 +j -10760686.3   48815049.0       0.9754
   TERMINAL TOTAL .-381209403.5 +j 8750921.2   381309831.9      -0.9997

ELEMENT = "Line.671684"
671           1    -2229607123.8 +j -5067707206.4   5536497471.9       0.4027
671           3    24559410.9 +j -1711652.1   24618984.9      -0.9976
   TERMINAL TOTAL .-2205047713.0 +j -5069418858.5   5528222406.8       0.3989
684           1    2769374336.5 +j 5617905926.0   6263409711.1       0.4422
684           3    -26641310.2 +j 1834146.9   26704372.4      -0.9976
   TERMINAL TOTAL .2742733026.3 +j 5619740072.8   6253324151.2       0.4386

ELEMENT = "Line.684611"
684           3    26641310.2 +j -1834146.9   26704372.4      -0.9976
   TERMINAL TOTAL .26641310.2 +j -1834146.9   26704372.4      -0.9976
611           3    -26582137.5 +j 1894079.8   26649532.3      -0.9975
   TERMINAL TOTAL .-26582137.5 +j 1894079.8   26649532.3      -0.9975

ELEMENT = "Line.684652"
684           1    -2769374336.5 +j -5617905926.0   6263409711.1       0.4422
   TERMINAL TOTAL .-2769374336.5 +j -5617905926.0   6263409711.1       0.4422
652           1    4225104177.5 +j 6173433378.2   7480827827.6       0.5648
   TERMINAL TOTAL .4225104177.5 +j 6173433378.2   7480827827.6       0.5648

ELEMENT = "Line.671692"
671           1    341211623.1 +j 21558649.9   341892010.9       0.9980
671           2    19063783.5 +j -18335682.6   26450427.2      -0.7207
671           3    37254918.3 +j 2175388.5   37318376.9       0.9983
   TERMINAL TOTAL .397530324.9 +j 5398355.8   397566977.3       0.9999
692           1    -341211620.4 +j -21558649.9   341892008.2       0.9980
692           2    -19063783.4 +j 18335682.6   26450427.1      -0.7207
692           3    -37254918.1 +j -2175388.5   37318376.7       0.9983
   TERMINAL TOTAL .-397530321.9 +j -5398355.8   397566974.4       0.9999

ELEMENT = "Line.SW_0"
684           1         0.0 +j      0.0        0.0       1.0000
684           2         0.0 +j      0.0        0.0       1.0000
684           3         0.0 +j      0.0        0.0       1.0000
   TERMINAL TOTAL .     0.0 +j      0.0        0.0       1.0000
652           1         3.9 +j    -12.9       13.5      -0.2907
652           2    31824281803228185.6 +j -13196789002273625600.0   13196827374617067500.0      -0.0024
652           3    31824286759934489.6 +j -13196790364347706900.0   13196828736699141100.0      -0.0024
   TERMINAL TOTAL .63648568563162675.2 +j -26393579366621331200.0   26393656111316211200.0      -0.0024

ELEMENT = "Line.SW_1"
671           1         0.0 +j      0.0        0.0       1.0000
671           2         0.0 +j      0.0        0.0       1.0000
671           3         0.0 +j      0.0        0.0       1.0000
   TERMINAL TOTAL .     0.0 +j      0.0        0.0       1.0000
680           1         0.0 +j     -1.7        1.7      -0.0023
680           2        -0.0 +j     -0.4        0.4       0.0005
680           3         0.0 +j     -0.3        0.3      -0.0092
   TERMINAL TOTAL .     0.0 +j     -2.3        2.3      -0.0026

ELEMENT = "Line.SW_2"
692           1         0.0 +j      0.0        0.0       1.0000
692           2         0.0 +j      0.0        0.0       1.0000
692           3         0.0 +j      0.0        0.0       1.0000
   TERMINAL TOTAL .     0.0 +j      0.0        0.0       1.0000
675           1         0.0 +j     -1.7        1.7      -0.0022
675           2        -0.0 +j     -0.4        0.4       0.0006
675           3         0.0 +j     -0.3        0.3      -0.0095
   TERMINAL TOTAL .     0.0 +j     -2.3        2.3      -0.0026

ELEMENT = "Line.SW_3"
632           1         0.0 +j     -0.0        0.0      -1.0000
632           2         0.0 +j      0.0        0.0       1.0000
632           3         0.0 +j     -0.0        0.0      -1.0000
   TERMINAL TOTAL .     0.0 +j     -0.0        0.0      -1.0000
645           1         0.0 +j      0.0        0.0       0.9457
645           2         0.0 +j     -0.1        0.1      -0.0009
645           3         0.0 +j     -0.1        0.1      -0.0049
   TERMINAL TOTAL .     0.0 +j     -0.2        0.2      -0.0026

ELEMENT = "Transformer.SUB"
SOURCEBUS     1    2280781.3 +j -4307165.2   4873770.1      -0.4680
SOURCEBUS     2    -44493.6 +j  20774.2    49104.4      -0.9061
SOURCEBUS     3    -1207843.4 +j -5578411.6   5707675.7       0.2116
SOURCEBUS     0         0.0 +j      0.0        0.0       1.0000
   TERMINAL TOTAL .1028444.3 +j -9864802.6   9918267.4      -0.1037
650           1    -898964.0 +j 11953276.9   11987033.2      -0.0750
650           2     79654.7 +j -48526.1    93271.9      -0.8540
650           3     36851.0 +j -72060.7    80936.6      -0.4553
650           0         0.0 +j      0.0        0.0       1.0000
   TERMINAL TOTAL .-782458.3 +j 11832690.1   11858532.6      -0.0660

ELEMENT = "Transformer.REG1"
650           1    898964.0 +j -11953276.9   11987033.2      -0.0750
650           0         0.0 +j      0.0        0.0       1.0000
   TERMINAL TOTAL .898964.0 +j -11953276.9   11987033.2      -0.0750
RG60          1    1557508.0 +j 14409748.9   14493677.8       0.1075
RG60          0         0.0 +j      0.0        0.0       1.0000
   TERMINAL TOTAL .1557508.0 +j 14409748.9   14493677.8       0.1075

ELEMENT = "Transformer.REG2"
650           2    -79654.7 +j  48526.1    93271.9      -0.8540
650           0         0.0 +j      0.0        0.0       1.0000
   TERMINAL TOTAL .-79654.7 +j  48526.1    93271.9      -0.8540
RG60          2     80150.5 +j -48030.3    93439.9      -0.8578
RG60          0         0.0 +j      0.0        0.0       1.0000
   TERMINAL TOTAL . 80150.5 +j -48030.3    93439.9      -0.8578

ELEMENT = "Transformer.REG3"
650           3    -36851.0 +j  72060.7    80936.6      -0.4553
650           0         0.0 +j      0.0        0.0       1.0000
   TERMINAL TOTAL .-36851.0 +j  72060.7    80936.6      -0.4553
RG60          3     37086.6 +j -71825.1    80834.8      -0.4588
RG60          0         0.0 +j      0.0        0.0       1.0000
   TERMINAL TOTAL . 37086.6 +j -71825.1    80834.8      -0.4588

ELEMENT = "Transformer.XFM1"
633           1    27372701.0 +j 22579666.6   35483885.1       0.7714
633           2    5078270.7 +j 4519667.0   6798251.5       0.7470
633           3    3645330.8 +j 3252212.2   4885214.5       0.7462
633           0         0.0 +j      0.0        0.0       1.0000
   TERMINAL TOTAL .36096302.4 +j 30351545.9   47160994.3       0.7654
634           1    -26916577.6 +j -21750321.7   34606049.2       0.7778
634           2    -5010357.5 +j -4396181.3   6665590.2       0.7517
634           3    -3596518.8 +j -3163457.9   4789823.9       0.7509
634           0         0.0 +j      0.0        0.0       1.0000
   TERMINAL TOTAL .-35523453.9 +j -29309960.8   46054202.6       0.7713

ELEMENT = "Capacitor.CAP1"
675           1        -0.0 +j -146587735.0   146587735.0       0.0000
675           2         0.0 +j -36549745.1   36549745.1       1.0000
675           3         0.0 +j -26262603.2   26262603.2       1.0000
   TERMINAL TOTAL .    -0.0 +j -209400083.3   209400083.3       0.0000
675           0         0.0 +j      0.0        0.0       1.0000
675           0         0.0 +j      0.0        0.0       1.0000
675           0         0.0 +j      0.0        0.0       1.0000
   TERMINAL TOTAL .     0.0 +j      0.0        0.0       1.0000

ELEMENT = "Capacitor.CAP2"
611           3         0.0 +j -15737100.0   15737100.0       1.0000
   TERMINAL TOTAL .     0.0 +j -15737100.0   15737100.0       1.0000
611           0         0.0 +j      0.0        0.0       1.0000
   TERMINAL TOTAL .     0.0 +j      0.0        0.0       1.0000

= = = = = = = = = = = = = = = = = = =  = = = = = = = = = = =  = =

Power Conversion Elements

  Bus     Phase     kW   +j  kvar         kVA         PF

ELEMENT = "Load.671"
671           1    19976488.1 +j -93597847.0   95705888.2      -0.2087
671           2    -6311129.1 +j 18151850.1   19217700.5      -0.3284
671           3    -2216549.7 +j 24374750.1   24475325.0      -0.0906
  TERMINAL TOTAL  .11448809.4 +j -51071246.8   52338776.1      -0.2187

ELEMENT = "Load.634A"
634           1    8146222.2 +j -26059712.0   27303287.8      -0.2984
634           0       0.0 +j    0.0        0.0       1.0000
  TERMINAL TOTAL  .8146222.2 +j -26059712.0   27303287.8      -0.2984

ELEMENT = "Load.634B"
634           2    1715698.6 +j -4941646.7   5231012.7      -0.3280
634           0       0.0 +j    0.0        0.0       1.0000
  TERMINAL TOTAL  .1715698.6 +j -4941646.7   5231012.7      -0.3280

ELEMENT = "Load.634C"
634           3    1262968.9 +j -3599786.0   3814911.5      -0.3311
634           0       0.0 +j    0.0        0.0       1.0000
  TERMINAL TOTAL  .1262968.9 +j -3599786.0   3814911.5      -0.3311

ELEMENT = "Load.645"
645           2    838080.1 +j -2489163.0   2626463.6      -0.3191
645           2    838080.1 +j -2489163.0   2626463.6      -0.3191
645           3    621485.5 +j -1825903.6   1928773.7      -0.3222
645           0       0.0 +j    0.0        0.0       1.0000
  TERMINAL TOTAL  .2297645.8 +j -6804229.7   7181693.2      -0.3199

ELEMENT = "Load.646"
646           2    -92698.5 +j -534411.7   542391.8       0.1709
646           3    106623.1 +j 449099.1   461582.6       0.2310
  TERMINAL TOTAL  . 13924.7 +j -85312.6    86441.5      -0.1611

ELEMENT = "Load.692"
692           3    -3919415.9 +j 11008604.0   11685511.7      -0.3354
692           1    10474203.5 +j -25423371.9   27496486.6      -0.3809
  TERMINAL TOTAL  .6554787.5 +j -14414767.8   15835112.0      -0.4139

ELEMENT = "Load.675A"
675           1    22300989.4 +j -309326564.1   310129420.4      -0.0719
675           0       0.0 +j    0.0        0.0       1.0000
  TERMINAL TOTAL  .22300989.4 +j -309326564.1   310129420.4      -0.0719

ELEMENT = "Load.675B"
675           2    5436423.6 +j -12284049.5   13433263.7      -0.4047
675           0       0.0 +j    0.0        0.0       1.0000
  TERMINAL TOTAL  .5436423.6 +j -12284049.5   13433263.7      -0.4047

ELEMENT = "Load.675C"
675           3    12363727.6 +j -36472260.8   38510876.0      -0.3210
675           0       0.0 +j    0.0        0.0       1.0000
  TERMINAL TOTAL  .12363727.6 +j -36472260.8   38510876.0      -0.3210

ELEMENT = "Load.611"
611           3    3418651.5 +j -25066804.6   25298851.2      -0.1351
611           0       0.0 +j    0.0        0.0       1.0000
  TERMINAL TOTAL  .3418651.5 +j -25066804.6   25298851.2      -0.1351

ELEMENT = "Load.652"
652           1    17812957.1 +j -59742486.6   62341528.2      -0.2857
652           2    179112826973958016000000000.0 +j 22403487149458403200000000.0   180508506788624704000000000.0       0.9923
652           3    179112839767286304000000000.0 +j 22403475629305465600000000.0   180508518053233344000000000.0       0.9923
652           0       0.0 +j    0.0        0.0       1.0000
  TERMINAL TOTAL  .358225666741244288000000000.0 +j 44806962778763878400000000.0   361017024841857792000000000.0       0.9923

ELEMENT = "Load.670A"
670           1    1205378.6 +j -5116841.2   5256900.4      -0.2293
670           0       0.0 +j    0.0        0.0       1.0000
  TERMINAL TOTAL  .1205378.6 +j -5116841.2   5256900.4      -0.2293

ELEMENT = "Load.670B"
670           2    1067810.7 +j -4898840.0   5013866.1      -0.2130
670           0       0.0 +j    0.0        0.0       1.0000
  TERMINAL TOTAL  .1067810.7 +j -4898840.0   5013866.1      -0.2130

ELEMENT = "Load.670C"
670           3    1425363.8 +j -6336472.1   6494808.8      -0.2195
670           0       0.0 +j    0.0        0.0       1.0000
  TERMINAL TOTAL  .1425363.8 +j -6336472.1   6494808.8      -0.2195

ELEMENT = "Load.LD_15"
680           1    20042116.5 +j -93027507.3   95161985.9      -0.2106
680           2    -6339504.0 +j 18086264.1   19165131.3      -0.3308
680           3    -2350509.7 +j 24298964.6   24412385.8      -0.0963
  TERMINAL TOTAL  .11352102.8 +j -50642278.6   51899042.6      -0.2187

ELEMENT = "Generator.GEN_0"
645           1       0.0 +j    0.0        0.0       0.3062
645           2    1380675.6 +j 4321311.2   4536518.0       0.3043
645           3    1003432.3 +j 3176734.8   3331444.2       0.3012
645           0       0.0 +j    0.0        0.0       1.0000
  TERMINAL TOTAL  .2384107.9 +j 7498046.0   7867951.7       0.3030

ELEMENT = "Storage.STO_0"
652           1    -180531.7 +j -579849.7   607303.4       0.2973
652           2    1570014374481222080000000.0 +j -791923593392177024000000.0   1758433426049687360000000.0      -0.8928
652           3    1570014415341468480000000.0 +j -791923756046950272000000.0   1758433535784484160000000.0      -0.8928
652           0       0.0 +j    0.0        0.0       1.0000
  TERMINAL TOTAL  .3140028789822689920000000.0 +j -1583847349439127040000000.0   3516866961834168960000000.0      -0.8928

ELEMENT = "Storage.STO_1"
680           1    -16376.9 +j -52677.4    55164.4       0.2969
680           2    -4162.3 +j -13161.2    13803.7       0.3015
680           3    -3021.7 +j -9619.7    10083.1       0.2997
680           0       0.0 +j    0.0        0.0       1.0000
  TERMINAL TOTAL  .-23560.9 +j -75458.3    79051.1       0.2980

ELEMENT = "Storage.STO_2"
675           1    -5940.8 +j -18686.0    19607.6       0.3030
675           2     706.5 +j 3853.6     3917.8       0.1803
675           3    2072.6 +j 4561.1     5009.9       0.4137
  TERMINAL TOTAL  . -3161.7 +j -10271.3    10746.9       0.2942

ELEMENT = "PVSystem.PV_1"
652           1       0.0 +j    0.0        0.0       1.0000
652           2       0.0 +j    0.0        0.0       1.0000
652           3       0.0 +j    0.0        0.0       1.0000
  TERMINAL TOTAL  .     0.0 +j      0.0        0.0       1.0000

ELEMENT = "PVSystem.PV_2"
680           1       0.0 +j    0.0        0.0       1.0000
680           2       0.0 +j    0.0        0.0       1.0000
680           3       0.0 +j    0.0        0.0       1.0000
  TERMINAL TOTAL  .     0.0 +j      0.0        0.0       1.0000

ELEMENT = "PVSystem.PV_3"
675           1       0.0 +j    0.0        0.0       1.0000
675           2       0.0 +j    0.0        0.0       1.0000
675           3       0.0 +j    0.0        0.0       1.0000
  TERMINAL TOTAL  .     0.0 +j      0.0        0.0       1.0000


Total Circuit Losses = 63648572247722700.8 +j -26393579360554579200.0
