trunk/Training/ConEd-2019/Examples/Control_DSS-G_TCP/ieee13nodeckt_VLN_elem.Txt

NODE-GROUND VOLTAGES BY CIRCUIT ELEMENT

Power Delivery Elements

Bus       (node ref)  Phase    Magnitude, kV (pu)    Angle

ELEMENT = "Vsource.SOURCE"
SOURCEBUS  (  1)    1           88.808 (   1.338) /_    8.6
SOURCEBUS  (  2)    2           66.307 (  0.9987) /_  -89.6
SOURCEBUS  (  3)    3           103.01 (   1.551) /_  149.0
------------
SOURCEBUS  (  0)    0                0 (       0) /_    0.0
SOURCEBUS  (  0)    0                0 (       0) /_    0.0
SOURCEBUS  (  0)    0                0 (       0) /_    0.0

ELEMENT = "Line.650632"
RG60       (  4)    1           5.8113 (    2.42) /_  -25.4
RG60       (  5)    2           2.6061 (   1.085) /_ -137.0
RG60       (  6)    3           3.3292 (   1.386) /_  126.9
------------
632        (  7)    1           1030.5 (   429.1) /_  -38.2
632        (  8)    2           512.43 (   213.4) /_  -37.2
632        (  9)    3           434.76 (     181) /_  -40.7

ELEMENT = "Line.632670"
632        (  7)    1           1030.5 (   429.1) /_  -38.2
632        (  8)    2           512.43 (   213.4) /_  -37.2
632        (  9)    3           434.76 (     181) /_  -40.7
------------
670        ( 10)    1           1375.9 (   572.9) /_  -38.2
670        ( 11)    2              685 (   285.2) /_  -37.2
670        ( 12)    3           581.66 (   242.2) /_  -40.9

ELEMENT = "Line.670671"
670        ( 10)    1           1375.9 (   572.9) /_  -38.2
670        ( 11)    2              685 (   285.2) /_  -37.2
670        ( 12)    3           581.66 (   242.2) /_  -40.9
------------
671        ( 13)    1           2069.6 (   861.7) /_  -38.1
671        ( 14)    2           1033.7 (   430.4) /_  -37.0
671        ( 15)    3           879.54 (   366.2) /_  -40.9

ELEMENT = "Line.671680"
671        ( 13)    1           2069.6 (   861.7) /_  -38.1
671        ( 14)    2           1033.7 (   430.4) /_  -37.0
671        ( 15)    3           879.54 (   366.2) /_  -40.9
------------
680        ( 16)    1           2066.4 (   860.4) /_  -38.1
680        ( 17)    2           1034.8 (   430.8) /_  -37.0
680        ( 18)    3           881.28 (   366.9) /_  -40.7

ELEMENT = "Line.632633"
632        (  7)    1           1030.5 (   429.1) /_  -38.2
632        (  8)    2           512.43 (   213.4) /_  -37.2
632        (  9)    3           434.76 (     181) /_  -40.7
------------
633        ( 19)    1           1025.2 (   426.8) /_  -38.3
633        ( 20)    2           509.01 (   211.9) /_  -37.3
633        ( 21)    3           431.44 (   179.6) /_  -41.0

ELEMENT = "Line.632645"
632        (  9)    3           434.76 (     181) /_  -40.7
632        (  8)    2           512.43 (   213.4) /_  -37.2
------------
645        ( 22)    3            439.5 (     183) /_  -40.4
645        ( 23)    2           516.63 (   215.1) /_  -36.9

ELEMENT = "Line.645646"
645        ( 22)    3            439.5 (     183) /_  -40.4
645        ( 23)    2           516.63 (   215.1) /_  -36.9
------------
646        ( 24)    3           439.58 (     183) /_  -40.4
646        ( 25)    2           516.54 (   215.1) /_  -36.9

ELEMENT = "Line.692675"
692        ( 26)    1           2069.6 (   861.7) /_  -38.1
692        ( 27)    2           1033.7 (   430.4) /_  -37.0
692        ( 28)    3           879.54 (   366.2) /_  -40.9
------------
675        ( 29)    1           2056.2 (   856.1) /_  -38.3
675        ( 30)    2           1026.7 (   427.5) /_  -37.1
675        ( 31)    3           870.34 (   362.4) /_  -41.0

ELEMENT = "Line.671684"
671        ( 13)    1           2069.6 (   861.7) /_  -38.1
671        ( 15)    3           879.54 (   366.2) /_  -40.9
------------
684        ( 32)    1           2341.3 (   974.8) /_  -40.6
684        ( 33)    3           954.04 (   397.2) /_  -40.8

ELEMENT = "Line.684611"
684        ( 33)    3           954.04 (   397.2) /_  -40.8
------------
611        ( 34)    3           952.08 (   396.4) /_  -41.0

ELEMENT = "Line.684652"
684        ( 32)    1           2341.3 (   974.8) /_  -40.6
------------
652        ( 35)    1           2796.4 (    1164) /_  -48.7

ELEMENT = "Line.671692"
671        ( 13)    1           2069.6 (   861.7) /_  -38.1
671        ( 14)    2           1033.7 (   430.4) /_  -37.0
671        ( 15)    3           879.54 (   366.2) /_  -40.9
------------
692        ( 26)    1           2069.6 (   861.7) /_  -38.1
692        ( 27)    2           1033.7 (   430.4) /_  -37.0
692        ( 28)    3           879.54 (   366.2) /_  -40.9

ELEMENT = "Line.SW_0"
684        ( 32)    1           2341.3 (   974.8) /_  -40.6
684        ( 36)    2                0 (       0) /_    0.0
684        ( 33)    3           954.04 (   397.2) /_  -40.8
------------
652        ( 35)    1           2796.4 (    1164) /_  -48.7
652        ( 37)    2       5.6413E012 (2.349E012) /_  -72.9
652        ( 38)    3       5.6413E012 (2.349E012) /_  107.1

ELEMENT = "Line.SW_1"
671        ( 13)    1           2069.6 (   861.7) /_  -38.1
671        ( 14)    2           1033.7 (   430.4) /_  -37.0
671        ( 15)    3           879.54 (   366.2) /_  -40.9
------------
680        ( 16)    1           2066.4 (   860.4) /_  -38.1
680        ( 17)    2           1034.8 (   430.8) /_  -37.0
680        ( 18)    3           881.28 (   366.9) /_  -40.7

ELEMENT = "Line.SW_2"
692        ( 26)    1           2069.6 (   861.7) /_  -38.1
692        ( 27)    2           1033.7 (   430.4) /_  -37.0
692        ( 28)    3           879.54 (   366.2) /_  -40.9
------------
675        ( 29)    1           2056.2 (   856.1) /_  -38.3
675        ( 30)    2           1026.7 (   427.5) /_  -37.1
675        ( 31)    3           870.34 (   362.4) /_  -41.0

ELEMENT = "Line.SW_3"
632        (  7)    1           1030.5 (   429.1) /_  -38.2
632        (  8)    2           512.43 (   213.4) /_  -37.2
632        (  9)    3           434.76 (     181) /_  -40.7
------------
645        ( 39)    1      1.9424E-007 (8.087E-008) /_ -109.5
645        ( 23)    2           516.63 (   215.1) /_  -36.9
645        ( 22)    3            439.5 (     183) /_  -40.4

ELEMENT = "Transformer.SUB"
SOURCEBUS  (  1)    1           88.808 (   1.338) /_    8.6
SOURCEBUS  (  2)    2           66.307 (  0.9987) /_  -89.6
SOURCEBUS  (  3)    3           103.01 (   1.551) /_  149.0
SOURCEBUS  (  0)    0                0 (       0) /_    0.0
------------
650        ( 43)    1           4.4971 (   1.872) /_  -15.0
650        ( 44)    2           2.4629 (   1.025) /_ -137.4
650        ( 45)    3           3.1008 (   1.291) /_  126.7
650        (  0)    0                0 (       0) /_    0.0

ELEMENT = "Transformer.REG1"
650        ( 43)    1           4.4971 (   1.872) /_  -15.0
650        (  0)    0                0 (       0) /_    0.0
------------
RG60       (  4)    1           5.8113 (    2.42) /_  -25.4
RG60       (  0)    0                0 (       0) /_    0.0

ELEMENT = "Transformer.REG2"
650        ( 44)    2           2.4629 (   1.025) /_ -137.4
650        (  0)    0                0 (       0) /_    0.0
------------
RG60       (  5)    2           2.6061 (   1.085) /_ -137.0
RG60       (  0)    0                0 (       0) /_    0.0

ELEMENT = "Transformer.REG3"
650        ( 45)    3           3.1008 (   1.291) /_  126.7
650        (  0)    0                0 (       0) /_    0.0
------------
RG60       (  6)    3           3.3292 (   1.386) /_  126.9
RG60       (  0)    0                0 (       0) /_    0.0

ELEMENT = "Transformer.XFM1"
633        ( 19)    1           1025.2 (   426.8) /_  -38.3
633        ( 20)    2           509.01 (   211.9) /_  -37.3
633        ( 21)    3           431.44 (   179.6) /_  -41.0
633        (  0)    0                0 (       0) /_    0.0
------------
634        ( 40)    1           115.36 (   416.3) /_  -38.9
634        ( 41)    2           57.586 (   207.8) /_  -37.7
634        ( 42)    3            48.81 (   176.1) /_  -41.4
634        (  0)    0                0 (       0) /_    0.0

ELEMENT = "Capacitor.CAP1"
675        ( 29)    1           2056.2 (   856.1) /_  -38.3
675        ( 30)    2           1026.7 (   427.5) /_  -37.1
675        ( 31)    3           870.34 (   362.4) /_  -41.0
------------
675        (  0)    0                0 (       0) /_    0.0
675        (  0)    0                0 (       0) /_    0.0
675        (  0)    0                0 (       0) /_    0.0

ELEMENT = "Capacitor.CAP2"
611        ( 34)    3           952.08 (   396.4) /_  -41.0
------------
611        (  0)    0                0 (       0) /_    0.0

= = = = = = = = = = = = = = = = = = =  = = = = = = = = = = =  = =

Power Conversion Elements

Bus       (node ref)  Phase    Magnitude, kV (pu)    Angle

ELEMENT = "Load.671"
671        ( 13)    1           2069.6 (   861.7) /_  -38.1
671        ( 14)    2           1033.7 (   430.4) /_  -37.0
671        ( 15)    3           879.54 (   366.2) /_  -40.9

ELEMENT = "Load.634A"
634        ( 40)    1           115.36 (   416.3) /_  -38.9
634        (  0)    0                0 (       0) /_    0.0

ELEMENT = "Load.634B"
634        ( 41)    2           57.586 (   207.8) /_  -37.7
634        (  0)    0                0 (       0) /_    0.0

ELEMENT = "Load.634C"
634        ( 42)    3            48.81 (   176.1) /_  -41.4
634        (  0)    0                0 (       0) /_    0.0

ELEMENT = "Load.645"
645        ( 23)    2           516.63 (   215.1) /_  -36.9
645        ( 23)    2           516.63 (   215.1) /_  -36.9
645        ( 22)    3            439.5 (     183) /_  -40.4
645        (  0)    0                0 (       0) /_    0.0

ELEMENT = "Load.646"
646        ( 25)    2           516.54 (   215.1) /_  -36.9
646        ( 24)    3           439.58 (     183) /_  -40.4

ELEMENT = "Load.692"
692        ( 28)    3           879.54 (   366.2) /_  -40.9
692        ( 26)    1           2069.6 (   861.7) /_  -38.1

ELEMENT = "Load.675A"
675        ( 29)    1           2056.2 (   856.1) /_  -38.3
675        (  0)    0                0 (       0) /_    0.0

ELEMENT = "Load.675B"
675        ( 30)    2           1026.7 (   427.5) /_  -37.1
675        (  0)    0                0 (       0) /_    0.0

ELEMENT = "Load.675C"
675        ( 31)    3           870.34 (   362.4) /_  -41.0
675        (  0)    0                0 (       0) /_    0.0

ELEMENT = "Load.611"
611        ( 34)    3           952.08 (   396.4) /_  -41.0
611        (  0)    0                0 (       0) /_    0.0

ELEMENT = "Load.652"
652        ( 35)    1           2796.4 (    1164) /_  -48.7
652        ( 37)    2       5.6413E012 (2.349E012) /_  -72.9
652        ( 38)    3       5.6413E012 (2.349E012) /_  107.1
652        (  0)    0                0 (       0) /_    0.0

ELEMENT = "Load.670A"
670        ( 10)    1           1375.9 (   572.9) /_  -38.2
670        (  0)    0                0 (       0) /_    0.0

ELEMENT = "Load.670B"
670        ( 11)    2              685 (   285.2) /_  -37.2
670        (  0)    0                0 (       0) /_    0.0

ELEMENT = "Load.670C"
670        ( 12)    3           581.66 (   242.2) /_  -40.9
670        (  0)    0                0 (       0) /_    0.0

ELEMENT = "Load.LD_15"
680        ( 16)    1           2066.4 (   860.4) /_  -38.1
680        ( 17)    2           1034.8 (   430.8) /_  -37.0
680        ( 18)    3           881.28 (   366.9) /_  -40.7

ELEMENT = "Generator.GEN_0"
645        ( 39)    1      1.9424E-007 (8.087E-008) /_ -109.5
645        ( 23)    2           516.63 (   215.1) /_  -36.9
645        ( 22)    3            439.5 (     183) /_  -40.4
645        (  0)    0                0 (       0) /_    0.0

ELEMENT = "Storage.STO_0"
652        ( 35)    1           2796.4 (    1164) /_  -48.7
652        ( 37)    2       5.6413E012 (2.349E012) /_  -72.9
652        ( 38)    3       5.6413E012 (2.349E012) /_  107.1
652        (  0)    0                0 (       0) /_    0.0

ELEMENT = "Storage.STO_1"
680        ( 16)    1           2066.4 (   860.4) /_  -38.1
680        ( 17)    2           1034.8 (   430.8) /_  -37.0
680        ( 18)    3           881.28 (   366.9) /_  -40.7
680        (  0)    0                0 (       0) /_    0.0

ELEMENT = "Storage.STO_2"
675        ( 29)    1           2056.2 (   856.1) /_  -38.3
675        ( 30)    2           1026.7 (   427.5) /_  -37.1
675        ( 31)    3           870.34 (   362.4) /_  -41.0

ELEMENT = "PVSystem.PV_1"
652        ( 35)    1           2796.4 (    1164) /_  -48.7
652        ( 37)    2       5.6413E012 (2.349E012) /_  -72.9
652        ( 38)    3       5.6413E012 (2.349E012) /_  107.1

ELEMENT = "PVSystem.PV_2"
680        ( 16)    1           2066.4 (   860.4) /_  -38.1
680        ( 17)    2           1034.8 (   430.8) /_  -37.0
680        ( 18)    3           881.28 (   366.9) /_  -40.7

ELEMENT = "PVSystem.PV_3"
675        ( 29)    1           2056.2 (   856.1) /_  -38.3
675        ( 30)    2           1026.7 (   427.5) /_  -37.1
675        ( 31)    3           870.34 (   362.4) /_  -41.0

